case_ieee37.m
function mpc = case_ieee37
%   Power flow data for IEEE 37 bus test case (single phase equivalent).
%
%	This testbed is distributed in the hope that it will be useful, but without any warranty.
%	We do request that publications in which this testbed is adopted, explicitly acknowledge that fact by citing:
%
%	N. Nazir, M. Almassalkhi (2020)
%	"Voltage positioning using co-optimization of controllable grid assets"
%	Preprint available at http://arxiv.org/abs/1911.00338

%% MATPOWER Case Format : Version 2
mpc.version = '2';

%%-----  Power Flow Data  -----%%
%% system MVA base
mpc.baseMVA = 1;

%% bus data
%	bus_i	type	Pd	Qd	Gs	Bs	area	Vm	Va	baseKV	zone	Vmax	Vmin
mpc.bus = [
	1	3	0.0 	0.0 	0.000	0.000	1	1	0	4.80	1	1.2	0.8	;
	2	1	0.350	0.175	0.000	0.000	1	1	0	4.80	1	1.2	0.8	;
	3	1	0.00	0.00	0.000	0.000	1	1	0	4.80	1	1.2	0.8	;
	4	1	0.00	0.00	0.000	0.000	1	1	0	4.80	1	1.2	0.8	;
	5	1	0.085	0.040	0.000	0.000	1	1	0	4.80	1	1.2	0.8	;
	6	1	0.00	0.00	0.000	0.000	1	1	0	4.80	1	1.2	0.8	;
	7	1	0.085	0.040	0.000	0.000	1	1	0	4.80	1	1.2	0.8	;
	8	1	0.00	0.00	0.000	0.000	1	1	0	4.80	1	1.2	0.8	;
	9	1	0.00	0.00	0.000	0.000	1	1	0	4.80	1	1.2	0.8	;
	10	1	0.00	0.00	0.000	0.000	1	1	0	4.80	1	1.2	0.8	;
	11	1	0.085	0.040	0.000	0.000	1	1	0	4.80	1	1.2	0.8	;
    12	1	0.00 	0.00 	0.000	0.000	1	1	0	4.80	1	1.2	0.8	;
	13	1	0.00	0.00	0.000	0.000	1	1	0	4.80	1	1.2	0.8	;
	14	1	0.021	0.010	0.000	0.000	1	1	0	4.80	1	1.2	0.8	;
	15	1	0.00	0.00	0.000	0.000	1	1	0	4.80	1	1.2	0.8	;
	16	1	0.00	0.00	0.000	0.000	1	1	0	4.80	1	1.2	0.8	;
	17	1	0.00	0.00	0.000	0.000	1	1	0	4.80	1	1.2	0.8	;
	18	1	0.042	0.021	0.000	0.000	1	1	0	4.80	1	1.2	0.8	;
	19	1	0.00	0.00	0.000	0.000	1	1	0	4.80	1	1.2	0.8	;
	20	1	0.00	0.00	0.000	0.000	1	1	0	4.80	1	1.2	0.8	;
	21	1	0.042	0.021	0.000	0.000	1	1	0	4.80	1	1.2	0.8	;
	22	1	0.085	0.040	0.000	0.000	1	1	0	4.80	1	1.2	0.8	;
    23	1	0.00 	0.00 	0.000	0.000	1	1	0	4.80	1	1.2	0.8	;
	24	1	0.00	0.00	0.000	0.000	1	1	0	4.80	1	1.2	0.8	;
	25	1	0.00	0.00	0.000	0.000	1	1	0	4.80	1	1.2	0.8	;
	26	1	0.042	0.021	0.000	0.000	1	1	0	4.80	1	1.2	0.8	;
	27	1	0.00	0.00	0.000	0.000	1	1	0	4.80	1	1.2	0.8	;
	28	1	0.042	0.021	0.000	0.000	1	1	0	4.80	1	1.2	0.8	;
	29	1	0.00	0.00	0.000	0.000	1	1	0	4.80	1	1.2	0.8	;
	30	1	0.00	0.00	0.000	0.000	1	1	0	4.80	1	1.2	0.8	;
	31	1	0.00	0.00	0.000	0.000	1	1	0	4.80	1	1.2	0.8	;
	32	1	0.042	0.021	0.000	0.000	1	1	0	4.80	1	1.2	0.8	;
	33	1	0.085	0.040	0.000	0.000	1	1	0	4.80	1	1.2	0.8	;
    34	1	0.00	0.00	0.000	0.000	1	1	0	4.80	1	1.2	0.8	;
	35	1	0.00	0.00	0.000	0.000	1	1	0	4.80	1	1.2	0.8	;
	36	1	0.085	0.040	0.000	0.000	1	1	0	4.80	1	1.2	0.8	;
];

%% generator data
%	bus	Pg	Qg	Qmax	Qmin	Vg	mBase	status	Pmax	Pmin	Pc1	Pc2	Qc1min	Qc1max	Qc2min	Qc2max	ramp_agc	ramp_10	ramp_30	ramp_q	apf
mpc.gen = [
	1	0	0	200	-200	1	1	1	200	-200	0	0	0	0	0	0	0	0	0	0	0;
];

%% branch data
%	fbus	tbus	r	x	b	rateA	rateB	rateC	ratio	angle	status	angmin	angmax
mpc.branch = [
	1	2	0.0044	0.0030	0	100	100	100	0	0	1	-360	360	;
	2	3	0.0038	0.0023	0	100	100	100	0	0	1	-360	360	;
	3	4	0.0069	0.0026	0	100	100	100	0	0	1	-360	360	;
	4	5	0.0038	0.0020	0	100	100	100	0	0	1	-360	360	;
	4	6	0.0052	0.0032	0	100	100	100	0	0	1	-360	360	;
	3	7	0.0041	0.0015	0	100	100	100	0	0	1	-360	360	;
	7	8	0.0055	0.0020	0	100	100	100	0	0	1	-360	360	;
	8	9	0.0055	0.0029	0	100	100	100	0	0	1	-360	360	;
	9	10	0.0014	0.0005	0	100	100	100	0	0	1	-360	360	;
	8	11	0.0085	0.0044	0	100	100	100	0	0	1	-360	360	;
    11	12	0.0090	0.0033	0	100	100	100	0	0	1	-360	360	;
	12	13	0.0158	0.0059	0	100	100	100	0	0	1	-360	360	;
	12	14	0.0064	0.0033	0	100	100	100	0	0	1	-360	360	;
	11	15	0.0131	0.0048	0	100	100	100	0	0	1	-360	360	;
	15	16	0.0021	0.0008	0	100	100	100	0	0	1	-360	360	;
	3	17	0.0048	0.0018	0	100	100	100	0	0	1	-360	360	;
	17	18	0.0041	0.0015	0	100	100	100	0	0	1	-360	360	;
	18	19	0.0064	0.0033	0	100	100	100	0	0	1	-360	360	;
	19	20	0.0030	0.0015	0	100	100	100	0	0	1	-360	360	;
	19	21	0.0048	0.0018	0	100	100	100	0	0	1	-360	360	;
    17	22	0.0034	0.0013	0	100	100	100	0	0	1	-360	360	;
	22	23	0.0021	0.0011	0	100	100	100	0	0	1	-360	360	;
	23	24	0.0064	0.0033	0	100	100	100	0	0	1	-360	360	;
	23	25	0.0034	0.0018	0	100	100	100	0	0	1	-360	360	;
	25	26	0.0055	0.0020	0	100	100	100	0	0	1	-360	360	;
	25	27	0.0034	0.0018	0	100	100	100	0	0	1	-360	360	;
	27	28	0.0060	0.0031	0	100	100	100	0	0	1	-360	360	;
	28	29	0.0068	0.0035	0	100	100	100	0	0	1	-360	360	;
	29	30	0.0090	0.0033	0	100	100	100	0	0	1	-360	360	;
	30	31	0.0043	0.0022	0	100	100	100	0	0	1	-360	360	;
    31	32	0.0043	0.0022	0	100	100	100	0	0	1	-360	360	;
	31	33	0.0043	0.0022	0	100	100	100	0	0	1	-360	360	;
	28	34	0.0034	0.0013	0	100	100	100	0	0	1	-360	360	;
	34	35	0.0220	0.0082	0	100	100	100	0	0	1	-360	360	;
	34	36	0.0034	0.0013	0	100	100	100	0	0	1	-360	360	;
];
